
** Library name: MULTIPLIER
** Cell name: inverter
** View name: schematic
.subckt inverter a b gnd vdd
