* File: 4_wallace_multiplier.pex.netlist.pex
* Created: Thu Jun 25 21:56:53 2020
* Program "Calibre xRC"
* Version "v2015.4_16.11"
* Nominal Temperature: 27C
* Circuit Temperature: 27C
* 
.subckt PM_4_WALLACE_MULTIPLIER_XI29.NET11 3 5 6 11 15 20 23 25 26 29 31 32 33
+ 34 35 36 41 42 43 58 59 63 66 67 68
c170 68 0 0.057512f
c171 67 0 0.00402851f
c172 66 0 0.048739f
c173 63 0 0.00430873f
c174 59 0 0.0348812f
c175 58 0 0.0313677f
c176 43 0 0.00496142f
c177 42 0 0.00266988f
c178 41 0 0.00682464f
c179 35 0 0.0212131f
c180 34 0 0.0086417f
c181 33 0 0.00271565f
c182 32 0 0.0136556f
c183 31 0 0.00247246f
c184 29 0 0.014872f
c185 26 0 0.00362741f
c186 25 0 0.0259352f
c187 23 0 0.0495115f
c188 20 0 0.0201028f
c189 15 0 0.025635f
c190 11 0 0.0204099f
c191 6 0 0.00382999f
c192 5 0 0.0137362f
c193 3 0 0.0251252f
r194 66 68 5.36476
r195 66 67 89.3538
r196 62 63 89.3538
r197 58 59 88.2939
r198 55 58 1.5
r199 55 63 88.2939
r200 52 55 1.28125
r201 52 67 88.2939
r202 48 52 1.46875
r203 48 49 88.2939
r204 43 49 0.110152
r205 41 49 0.103394
r206 41 42 1.29437
r207 37 42 0.187062
r208 36 59 1.61172
r209 35 43 3.10786
r210 34 37 0.800714
r211 32 62 10.3527
r212 32 33 0.243858
r213 27 29 18.72
r214 25 27 4.36146
r215 25 26 56.8286
r216 21 33 4.89813
r217 21 23 90.48
r218 18 33 4.89813
r219 18 20 20.67
r220 17 26 4.36146
r221 17 20 29.25
r222 13 15 35.1
r223 12 31 2.93573
r224 11 13 4.38573
r225 11 12 35.9478
r226 7 31 1.18301
r227 7 68 160.68
r228 5 31 2.93573
r229 5 6 30.8609
r230 1 6 4.38573
r231 1 3 35.1
.ends

.subckt PM_4_WALLACE_MULTIPLIER_XI29.NET21 3 7 11 13 14 15 29 33 35 40 43 44 47
+ 52 57
c112 57 0 0.00873142f
c113 52 0 0.0120465f
c114 47 0 0.0120975f
c115 44 0 0.00512486f
c116 43 0 0.00571853f
c117 40 0 0.0239504f
c118 35 0 0.0107752f
c119 33 0 0.00239439f
c120 29 0 0.0026625f
c121 15 0 0.0260421f
c122 14 0 0.0152338f
c123 13 0 0.00171319f
c124 11 0 0.0198111f
c125 7 0 0.014872f
c126 3 0 0.0120876f
r127 57 59 5.49772
r128 52 55 5.63701
r129 47 50 5.63701
r130 44 57 89.3538
r131 43 44 88.2939
r132 39 43 1.19643
r133 39 40 88.2939
r134 36 40 1.74244
r135 35 36 88.2939
r136 33 52 89.3538
r137 32 35 1.20536
r138 32 33 88.2939
r139 29 47 89.3538
r140 28 32 2.11607
r141 28 29 88.2939
r142 24 36 1.63122
r143 15 16 2.76195
r144 14 20 0.494
r145 13 20 0.0115966
r146 13 24 0.201043
r147 13 16 0.201043
r148 11 59 23.4
r149 7 55 18.33
r150 3 50 18.72
.ends

.subckt PM_4_WALLACE_MULTIPLIER_XI28.NET11 3 5 6 11 15 20 23 25 26 29 31 32 33
+ 34 35 36 41 42 43 58 59 63 66 67 68
c163 68 0 0.057492f
c164 67 0 0.00423639f
c165 66 0 0.0497921f
c166 63 0 0.00431268f
c167 59 0 0.036459f
c168 58 0 0.0227602f
c169 43 0 0.0049241f
c170 42 0 0.00181535f
c171 41 0 0.00636403f
c172 35 0 0.0215026f
c173 34 0 0.0103111f
c174 33 0 0.00265802f
c175 32 0 0.0135847f
c176 31 0 0.00247246f
c177 29 0 0.014872f
c178 26 0 0.00362741f
c179 25 0 0.0259352f
c180 23 0 0.0509806f
c181 20 0 0.0201565f
c182 15 0 0.024777f
c183 11 0 0.022054f
c184 6 0 0.00429563f
c185 5 0 0.014729f
c186 3 0 0.0246396f
r187 66 68 5.36476
r188 66 67 89.3538
r189 62 63 89.3538
r190 58 59 88.2939
r191 55 58 1.5
r192 55 63 88.2939
r193 52 55 1.28125
r194 52 67 88.2939
r195 48 52 1.46875
r196 48 49 88.2939
r197 43 49 0.110152
r198 41 49 0.103394
r199 41 42 1.29437
r200 37 42 0.187062
r201 36 59 1.61172
r202 35 43 3.10786
r203 34 37 0.800714
r204 32 62 10.3527
r205 32 33 0.243858
r206 27 29 18.72
r207 25 27 4.36146
r208 25 26 56.8286
r209 21 33 4.89813
r210 21 23 90.48
r211 18 33 4.89813
r212 18 20 20.67
r213 17 26 4.36146
r214 17 20 29.25
r215 13 15 35.1
r216 12 31 2.93573
r217 11 13 4.38573
r218 11 12 35.9478
r219 7 31 1.18301
r220 7 68 160.68
r221 5 31 2.93573
r222 5 6 30.8609
r223 1 6 4.38573
r224 1 3 35.1
.ends

.subckt PM_4_WALLACE_MULTIPLIER_XI28.NET21 3 7 11 13 14 15 29 33 35 40 43 44 47
+ 52 57
c114 57 0 0.00863227f
c115 52 0 0.0109123f
c116 47 0 0.010938f
c117 44 0 0.00507128f
c118 43 0 0.00345192f
c119 40 0 0.0254553f
c120 35 0 0.00855345f
c121 33 0 0.00239439f
c122 29 0 0.0026625f
c123 15 0 0.0262961f
c124 14 0 0.0152695f
c125 13 0 0.00171319f
c126 11 0 0.0194082f
c127 7 0 0.014872f
c128 3 0 0.0120876f
r129 57 59 5.49772
r130 52 55 5.63701
r131 47 50 5.63701
r132 44 57 89.3538
r133 43 44 88.2939
r134 39 43 1.19643
r135 39 40 88.2939
r136 36 40 1.74244
r137 35 36 88.2939
r138 33 52 89.3538
r139 32 35 1.20536
r140 32 33 88.2939
r141 29 47 89.3538
r142 28 32 2.11607
r143 28 29 88.2939
r144 24 36 1.63122
r145 15 16 2.76195
r146 14 20 0.494
r147 13 20 0.0115966
r148 13 24 0.201043
r149 13 16 0.201043
r150 11 59 23.4
r151 7 55 18.33
r152 3 50 18.72
.ends

.subckt PM_4_WALLACE_MULTIPLIER_XI37.NET11 3 5 6 11 15 20 23 25 26 29 31 32 33
+ 34 35 36 41 42 43 58 59 63 66 67 68
c149 68 0 0.0583459f
c150 67 0 0.00402851f
c151 66 0 0.0499696f
c152 63 0 0.00430873f
c153 59 0 0.0445112f
c154 58 0 0.0352417f
c155 43 0 0.00493041f
c156 42 0 0.00224713f
c157 41 0 0.00691346f
c158 35 0 0.0220737f
c159 34 0 0.0077561f
c160 33 0 0.00271565f
c161 32 0 0.0136556f
c162 31 0 0.00247246f
c163 29 0 0.014872f
c164 26 0 0.00362741f
c165 25 0 0.0259254f
c166 23 0 0.0537602f
c167 20 0 0.0201028f
c168 15 0 0.0256576f
c169 11 0 0.022128f
c170 6 0 0.00429563f
c171 5 0 0.0147264f
c172 3 0 0.0251252f
r173 66 68 5.36476
r174 66 67 89.3538
r175 62 63 89.3538
r176 58 59 88.2939
r177 55 58 1.5
r178 55 63 88.2939
r179 52 55 1.28125
r180 52 67 88.2939
r181 48 52 1.46875
r182 48 49 88.2939
r183 43 49 0.110152
r184 41 49 0.103394
r185 41 42 1.29437
r186 37 42 0.187062
r187 36 59 1.61172
r188 35 43 3.10786
r189 34 37 0.800714
r190 32 62 10.3527
r191 32 33 0.243858
r192 27 29 18.72
r193 25 27 4.36146
r194 25 26 56.8286
r195 21 33 4.89813
r196 21 23 90.48
r197 18 33 4.89813
r198 18 20 20.67
r199 17 26 4.36146
r200 17 20 29.25
r201 13 15 35.1
r202 12 31 2.93573
r203 11 13 4.38573
r204 11 12 35.9478
r205 7 31 1.18301
r206 7 68 160.68
r207 5 31 2.93573
r208 5 6 30.8609
r209 1 6 4.38573
r210 1 3 35.1
.ends

.subckt PM_4_WALLACE_MULTIPLIER_XI37.NET21 3 7 11 13 14 15 29 33 35 40 43 44 47
+ 52 57
c105 57 0 0.00873142f
c106 52 0 0.0120465f
c107 47 0 0.0120975f
c108 44 0 0.00422927f
c109 43 0 0.00418793f
c110 40 0 0.0252845f
c111 35 0 0.0107752f
c112 33 0 0.00239439f
c113 29 0 0.0026625f
c114 15 0 0.0288074f
c115 14 0 0.0152442f
c116 13 0 0.00171319f
c117 11 0 0.019129f
c118 7 0 0.014872f
c119 3 0 0.0120876f
r120 57 59 5.49772
r121 52 55 5.63701
r122 47 50 5.63701
r123 44 57 89.3538
r124 43 44 88.2939
r125 39 43 1.19643
r126 39 40 88.2939
r127 36 40 1.74244
r128 35 36 88.2939
r129 33 52 89.3538
r130 32 35 1.20536
r131 32 33 88.2939
r132 29 47 89.3538
r133 28 32 2.11607
r134 28 29 88.2939
r135 24 36 1.63122
r136 15 16 2.76195
r137 14 20 0.494
r138 13 20 0.0115966
r139 13 24 0.201043
r140 13 16 0.201043
r141 11 59 23.4
r142 7 55 18.33
r143 3 50 18.72
.ends

.subckt PM_4_WALLACE_MULTIPLIER_XI38.NET11 3 5 6 11 15 20 23 25 26 29 31 32 33
+ 34 35 36 41 42 43 58 59 63 66 67 68
c155 68 0 0.0583459f
c156 67 0 0.00423639f
c157 66 0 0.0499696f
c158 63 0 0.00431268f
c159 59 0 0.0365758f
c160 58 0 0.0349426f
c161 43 0 0.00495292f
c162 42 0 0.00244354f
c163 41 0 0.00687714f
c164 35 0 0.0216117f
c165 34 0 0.00874939f
c166 33 0 0.00271565f
c167 32 0 0.0136556f
c168 31 0 0.00247246f
c169 29 0 0.014872f
c170 26 0 0.00362741f
c171 25 0 0.0259254f
c172 23 0 0.0539401f
c173 20 0 0.0201028f
c174 15 0 0.0256576f
c175 11 0 0.022128f
c176 6 0 0.00429563f
c177 5 0 0.0147264f
c178 3 0 0.0251252f
r179 66 68 5.36476
r180 66 67 89.3538
r181 62 63 89.3538
r182 58 59 88.2939
r183 55 58 1.5
r184 55 63 88.2939
r185 52 55 1.28125
r186 52 67 88.2939
r187 48 52 1.46875
r188 48 49 88.2939
r189 43 49 0.110152
r190 41 49 0.103394
r191 41 42 1.29437
r192 37 42 0.187062
r193 36 59 1.61172
r194 35 43 3.10786
r195 34 37 0.800714
r196 32 62 10.3527
r197 32 33 0.243858
r198 27 29 18.72
r199 25 27 4.36146
r200 25 26 56.8286
r201 21 33 4.89813
r202 21 23 90.48
r203 18 33 4.89813
r204 18 20 20.67
r205 17 26 4.36146
r206 17 20 29.25
r207 13 15 35.1
r208 12 31 2.93573
r209 11 13 4.38573
r210 11 12 35.9478
r211 7 31 1.18301
r212 7 68 160.68
r213 5 31 2.93573
r214 5 6 30.8609
r215 1 6 4.38573
r216 1 3 35.1
.ends

.subckt PM_4_WALLACE_MULTIPLIER_XI38.NET21 3 7 11 13 14 15 29 33 35 40 43 44 47
+ 52 57
c110 57 0 0.00873142f
c111 52 0 0.0120465f
c112 47 0 0.0120975f
c113 44 0 0.00422927f
c114 43 0 0.00418793f
c115 40 0 0.0252845f
c116 35 0 0.0107752f
c117 33 0 0.00239439f
c118 29 0 0.0026625f
c119 15 0 0.0264191f
c120 14 0 0.0151835f
c121 13 0 0.00171319f
c122 11 0 0.019129f
c123 7 0 0.014872f
c124 3 0 0.0120876f
r125 57 59 5.49772
r126 52 55 5.63701
r127 47 50 5.63701
r128 44 57 89.3538
r129 43 44 88.2939
r130 39 43 1.19643
r131 39 40 88.2939
r132 36 40 1.74244
r133 35 36 88.2939
r134 33 52 89.3538
r135 32 35 1.20536
r136 32 33 88.2939
r137 29 47 89.3538
r138 28 32 2.11607
r139 28 29 88.2939
r140 24 36 1.63122
r141 15 16 2.76195
r142 14 20 0.494
r143 13 20 0.0115966
r144 13 24 0.201043
r145 13 16 0.201043
r146 11 59 23.4
r147 7 55 18.33
r148 3 50 18.72
.ends

.subckt PM_4_WALLACE_MULTIPLIER_XI31.NET11 3 5 6 11 15 20 23 25 26 29 31 32 33
+ 34 35 36 41 42 43 58 59 63 66 67 68
c151 68 0 0.0583459f
c152 67 0 0.00402851f
c153 66 0 0.0499696f
c154 63 0 0.00430873f
c155 59 0 0.0362753f
c156 58 0 0.0352416f
c157 43 0 0.00493041f
c158 42 0 0.00260707f
c159 41 0 0.00691346f
c160 35 0 0.0222344f
c161 34 0 0.00898765f
c162 33 0 0.00271565f
c163 32 0 0.0136556f
c164 31 0 0.00247246f
c165 29 0 0.014872f
c166 26 0 0.00362741f
c167 25 0 0.0259352f
c168 23 0 0.0512254f
c169 20 0 0.0201028f
c170 15 0 0.025635f
c171 11 0 0.022128f
c172 6 0 0.00429563f
c173 5 0 0.0147264f
c174 3 0 0.0253142f
r175 66 68 5.36476
r176 66 67 89.3538
r177 62 63 89.3538
r178 58 59 88.2939
r179 55 58 1.5
r180 55 63 88.2939
r181 52 55 1.28125
r182 52 67 88.2939
r183 48 52 1.46875
r184 48 49 88.2939
r185 43 49 0.110152
r186 41 49 0.103394
r187 41 42 1.29437
r188 37 42 0.187062
r189 36 59 1.61172
r190 35 43 3.10786
r191 34 37 0.800714
r192 32 62 10.3527
r193 32 33 0.243858
r194 27 29 18.72
r195 25 27 4.36146
r196 25 26 56.8286
r197 21 33 4.89813
r198 21 23 90.48
r199 18 33 4.89813
r200 18 20 20.67
r201 17 26 4.36146
r202 17 20 29.25
r203 13 15 35.1
r204 12 31 2.93573
r205 11 13 4.38573
r206 11 12 35.9478
r207 7 31 1.18301
r208 7 68 160.68
r209 5 31 2.93573
r210 5 6 30.8609
r211 1 6 4.38573
r212 1 3 35.1
.ends

.subckt PM_4_WALLACE_MULTIPLIER_XI31.NET21 3 7 11 13 14 15 29 33 35 40 43 44 47
+ 52 57
c104 57 0 0.00873142f
c105 52 0 0.0120465f
c106 47 0 0.0120975f
c107 44 0 0.00512486f
c108 43 0 0.00571853f
c109 40 0 0.0254596f
c110 35 0 0.0107752f
c111 33 0 0.00239439f
c112 29 0 0.0026625f
c113 15 0 0.0272475f
c114 14 0 0.0152397f
c115 13 0 0.00171319f
c116 11 0 0.019764f
c117 7 0 0.014872f
c118 3 0 0.0120876f
r119 57 59 5.49772
r120 52 55 5.63701
r121 47 50 5.63701
r122 44 57 89.3538
r123 43 44 88.2939
r124 39 43 1.19643
r125 39 40 88.2939
r126 36 40 1.74244
r127 35 36 88.2939
r128 33 52 89.3538
r129 32 35 1.20536
r130 32 33 88.2939
r131 29 47 89.3538
r132 28 32 2.11607
r133 28 29 88.2939
r134 24 36 1.63122
r135 15 16 2.76195
r136 14 20 0.494
r137 13 20 0.0115966
r138 13 24 0.201043
r139 13 16 0.201043
r140 11 59 23.4
r141 7 55 18.33
r142 3 50 18.72
.ends

.subckt PM_4_WALLACE_MULTIPLIER_XI35.NET11 3 5 6 11 15 20 23 25 26 29 31 32 33
+ 34 35 36 41 42 43 58 59 63 66 67 68
c150 68 0 0.0583459f
c151 67 0 0.00402851f
c152 66 0 0.0499696f
c153 63 0 0.00430873f
c154 59 0 0.0362995f
c155 58 0 0.0352416f
c156 43 0 0.00493041f
c157 42 0 0.00234986f
c158 41 0 0.00691346f
c159 35 0 0.0221239f
c160 34 0 0.00823946f
c161 33 0 0.00271565f
c162 32 0 0.0136556f
c163 31 0 0.00247246f
c164 29 0 0.014872f
c165 26 0 0.00362741f
c166 25 0 0.0259352f
c167 23 0 0.0512254f
c168 20 0 0.0201028f
c169 15 0 0.025635f
c170 11 0 0.022128f
c171 6 0 0.00429563f
c172 5 0 0.0147264f
c173 3 0 0.0253201f
r174 66 68 5.36476
r175 66 67 89.3538
r176 62 63 89.3538
r177 58 59 88.2939
r178 55 58 1.5
r179 55 63 88.2939
r180 52 55 1.28125
r181 52 67 88.2939
r182 48 52 1.46875
r183 48 49 88.2939
r184 43 49 0.110152
r185 41 49 0.103394
r186 41 42 1.29437
r187 37 42 0.187062
r188 36 59 1.61172
r189 35 43 3.10786
r190 34 37 0.800714
r191 32 62 10.3527
r192 32 33 0.243858
r193 27 29 18.72
r194 25 27 4.36146
r195 25 26 56.8286
r196 21 33 4.89813
r197 21 23 90.48
r198 18 33 4.89813
r199 18 20 20.67
r200 17 26 4.36146
r201 17 20 29.25
r202 13 15 35.1
r203 12 31 2.93573
r204 11 13 4.38573
r205 11 12 35.9478
r206 7 31 1.18301
r207 7 68 160.68
r208 5 31 2.93573
r209 5 6 30.8609
r210 1 6 4.38573
r211 1 3 35.1
.ends

.subckt PM_4_WALLACE_MULTIPLIER_XI35.NET21 3 7 11 13 14 15 29 33 35 40 43 44 47
+ 52 57
c104 57 0 0.00873142f
c105 52 0 0.0120465f
c106 47 0 0.0120975f
c107 44 0 0.00512486f
c108 43 0 0.00571853f
c109 40 0 0.0254596f
c110 35 0 0.0107752f
c111 33 0 0.00239439f
c112 29 0 0.0026625f
c113 15 0 0.0272475f
c114 14 0 0.0152397f
c115 13 0 0.00171319f
c116 11 0 0.0196426f
c117 7 0 0.014872f
c118 3 0 0.0120876f
r119 57 59 5.49772
r120 52 55 5.63701
r121 47 50 5.63701
r122 44 57 89.3538
r123 43 44 88.2939
r124 39 43 1.19643
r125 39 40 88.2939
r126 36 40 1.74244
r127 35 36 88.2939
r128 33 52 89.3538
r129 32 35 1.20536
r130 32 33 88.2939
r131 29 47 89.3538
r132 28 32 2.11607
r133 28 29 88.2939
r134 24 36 1.63122
r135 15 16 2.76195
r136 14 20 0.494
r137 13 20 0.0115966
r138 13 24 0.201043
r139 13 16 0.201043
r140 11 59 23.4
r141 7 55 18.33
r142 3 50 18.72
.ends

.subckt PM_4_WALLACE_MULTIPLIER_XI30.NET11 3 5 6 11 15 20 23 25 26 29 31 32 33
+ 34 35 36 41 42 43 58 59 63 66 67 68
c155 68 0 0.0583459f
c156 67 0 0.00423639f
c157 66 0 0.0499696f
c158 63 0 0.00431268f
c159 59 0 0.0358641f
c160 58 0 0.0351835f
c161 43 0 0.00495292f
c162 42 0 0.00287596f
c163 41 0 0.00687714f
c164 35 0 0.0218105f
c165 34 0 0.0103412f
c166 33 0 0.00271565f
c167 32 0 0.0136556f
c168 31 0 0.00247246f
c169 29 0 0.014872f
c170 26 0 0.00362741f
c171 25 0 0.0259352f
c172 23 0 0.0512254f
c173 20 0 0.0201028f
c174 15 0 0.0251961f
c175 11 0 0.022054f
c176 6 0 0.00429563f
c177 5 0 0.0147261f
c178 3 0 0.0254966f
r179 66 68 5.36476
r180 66 67 89.3538
r181 62 63 89.3538
r182 58 59 88.2939
r183 55 58 1.5
r184 55 63 88.2939
r185 52 55 1.28125
r186 52 67 88.2939
r187 48 52 1.46875
r188 48 49 88.2939
r189 43 49 0.110152
r190 41 49 0.103394
r191 41 42 1.29437
r192 37 42 0.187062
r193 36 59 1.61172
r194 35 43 3.10786
r195 34 37 0.800714
r196 32 62 10.3527
r197 32 33 0.243858
r198 27 29 18.72
r199 25 27 4.36146
r200 25 26 56.8286
r201 21 33 4.89813
r202 21 23 90.48
r203 18 33 4.89813
r204 18 20 20.67
r205 17 26 4.36146
r206 17 20 29.25
r207 13 15 35.1
r208 12 31 2.93573
r209 11 13 4.38573
r210 11 12 35.9478
r211 7 31 1.18301
r212 7 68 160.68
r213 5 31 2.93573
r214 5 6 30.8609
r215 1 6 4.38573
r216 1 3 35.1
.ends

.subckt PM_4_WALLACE_MULTIPLIER_XI30.NET21 3 7 11 13 14 15 29 33 35 40 43 44 47
+ 52 57
c110 57 0 0.00873511f
c111 52 0 0.0120465f
c112 47 0 0.0120975f
c113 44 0 0.00564153f
c114 43 0 0.00557469f
c115 40 0 0.0250529f
c116 35 0 0.0107752f
c117 33 0 0.00257714f
c118 29 0 0.00308796f
c119 15 0 0.0265671f
c120 14 0 0.0152695f
c121 13 0 0.00171319f
c122 11 0 0.0197344f
c123 7 0 0.014872f
c124 3 0 0.0120876f
r125 57 59 5.49772
r126 52 55 5.63701
r127 47 50 5.63701
r128 44 57 89.3538
r129 43 44 88.2939
r130 39 43 1.19643
r131 39 40 88.2939
r132 36 40 1.74244
r133 35 36 88.2939
r134 33 52 89.3538
r135 32 35 1.20536
r136 32 33 88.2939
r137 29 47 89.3538
r138 28 32 2.11607
r139 28 29 88.2939
r140 24 36 1.63122
r141 15 16 2.76195
r142 14 20 0.494
r143 13 20 0.0115966
r144 13 24 0.201043
r145 13 16 0.201043
r146 11 59 23.4
r147 7 55 18.33
r148 3 50 18.72
.ends

.subckt PM_4_WALLACE_MULTIPLIER_XI34.NET11 3 5 6 11 15 20 23 25 26 29 31 32 33
+ 34 35 36 41 42 43 58 59 63 66 67 68
c152 68 0 0.0583459f
c153 67 0 0.00423639f
c154 66 0 0.0499696f
c155 63 0 0.00431268f
c156 59 0 0.0358352f
c157 58 0 0.0351835f
c158 43 0 0.00495292f
c159 42 0 0.0023504f
c160 41 0 0.00687714f
c161 35 0 0.021566f
c162 34 0 0.00839275f
c163 33 0 0.00271565f
c164 32 0 0.0136556f
c165 31 0 0.00247246f
c166 29 0 0.014872f
c167 26 0 0.00362741f
c168 25 0 0.0259352f
c169 23 0 0.0512254f
c170 20 0 0.0201028f
c171 15 0 0.025635f
c172 11 0 0.022128f
c173 6 0 0.00429563f
c174 5 0 0.0147264f
c175 3 0 0.0253201f
r176 66 68 5.36476
r177 66 67 89.3538
r178 62 63 89.3538
r179 58 59 88.2939
r180 55 58 1.5
r181 55 63 88.2939
r182 52 55 1.28125
r183 52 67 88.2939
r184 48 52 1.46875
r185 48 49 88.2939
r186 43 49 0.110152
r187 41 49 0.103394
r188 41 42 1.29437
r189 37 42 0.187062
r190 36 59 1.61172
r191 35 43 3.10786
r192 34 37 0.800714
r193 32 62 10.3527
r194 32 33 0.243858
r195 27 29 18.72
r196 25 27 4.36146
r197 25 26 56.8286
r198 21 33 4.89813
r199 21 23 90.48
r200 18 33 4.89813
r201 18 20 20.67
r202 17 26 4.36146
r203 17 20 29.25
r204 13 15 35.1
r205 12 31 2.93573
r206 11 13 4.38573
r207 11 12 35.9478
r208 7 31 1.18301
r209 7 68 160.68
r210 5 31 2.93573
r211 5 6 30.8609
r212 1 6 4.38573
r213 1 3 35.1
.ends

.subckt PM_4_WALLACE_MULTIPLIER_XI34.NET21 3 7 11 13 14 15 29 33 35 40 43 44 47
+ 52 57
c106 57 0 0.00873142f
c107 52 0 0.0120465f
c108 47 0 0.0120975f
c109 44 0 0.00512486f
c110 43 0 0.00571853f
c111 40 0 0.0254596f
c112 35 0 0.0107752f
c113 33 0 0.00239439f
c114 29 0 0.0026625f
c115 15 0 0.0265671f
c116 14 0 0.0152885f
c117 13 0 0.00171319f
c118 11 0 0.0197726f
c119 7 0 0.014872f
c120 3 0 0.0120876f
r121 57 59 5.49772
r122 52 55 5.63701
r123 47 50 5.63701
r124 44 57 89.3538
r125 43 44 88.2939
r126 39 43 1.19643
r127 39 40 88.2939
r128 36 40 1.74244
r129 35 36 88.2939
r130 33 52 89.3538
r131 32 35 1.20536
r132 32 33 88.2939
r133 29 47 89.3538
r134 28 32 2.11607
r135 28 29 88.2939
r136 24 36 1.63122
r137 15 16 2.76195
r138 14 20 0.494
r139 13 20 0.0115966
r140 13 24 0.201043
r141 13 16 0.201043
r142 11 59 23.4
r143 7 55 18.33
r144 3 50 18.72
.ends

.subckt PM_4_WALLACE_MULTIPLIER_XI33.NET11 3 5 6 11 15 20 23 25 26 29 31 32 33
+ 34 35 36 41 42 43 58 59 63 66 67 68
c157 68 0 0.0583459f
c158 67 0 0.00423639f
c159 66 0 0.0499696f
c160 63 0 0.00431268f
c161 59 0 0.0350563f
c162 58 0 0.0351835f
c163 43 0 0.00495292f
c164 42 0 0.00235376f
c165 41 0 0.00687714f
c166 35 0 0.0215784f
c167 34 0 0.0082549f
c168 33 0 0.00271565f
c169 32 0 0.0136556f
c170 31 0 0.00247246f
c171 29 0 0.014872f
c172 26 0 0.00362741f
c173 25 0 0.0259352f
c174 23 0 0.0512254f
c175 20 0 0.0201028f
c176 15 0 0.025635f
c177 11 0 0.022128f
c178 6 0 0.00429563f
c179 5 0 0.0147264f
c180 3 0 0.0251252f
r181 66 68 5.36476
r182 66 67 89.3538
r183 62 63 89.3538
r184 58 59 88.2939
r185 55 58 1.5
r186 55 63 88.2939
r187 52 55 1.28125
r188 52 67 88.2939
r189 48 52 1.46875
r190 48 49 88.2939
r191 43 49 0.110152
r192 41 49 0.103394
r193 41 42 1.29437
r194 37 42 0.187062
r195 36 59 1.61172
r196 35 43 3.10786
r197 34 37 0.800714
r198 32 62 10.3527
r199 32 33 0.243858
r200 27 29 18.72
r201 25 27 4.36146
r202 25 26 56.8286
r203 21 33 4.89813
r204 21 23 90.48
r205 18 33 4.89813
r206 18 20 20.67
r207 17 26 4.36146
r208 17 20 29.25
r209 13 15 35.1
r210 12 31 2.93573
r211 11 13 4.38573
r212 11 12 35.9478
r213 7 31 1.18301
r214 7 68 160.68
r215 5 31 2.93573
r216 5 6 30.8609
r217 1 6 4.38573
r218 1 3 35.1
.ends

.subckt PM_4_WALLACE_MULTIPLIER_XI33.NET21 3 7 11 13 14 15 29 33 35 40 43 44 47
+ 52 57
c107 57 0 0.00873142f
c108 52 0 0.0120465f
c109 47 0 0.0120975f
c110 44 0 0.00512486f
c111 43 0 0.00571853f
c112 40 0 0.0254596f
c113 35 0 0.0107752f
c114 33 0 0.00239439f
c115 29 0 0.0026625f
c116 15 0 0.0265671f
c117 14 0 0.0152885f
c118 13 0 0.00171319f
c119 11 0 0.0197726f
c120 7 0 0.014872f
c121 3 0 0.0120876f
r122 57 59 5.49772
r123 52 55 5.63701
r124 47 50 5.63701
r125 44 57 89.3538
r126 43 44 88.2939
r127 39 43 1.19643
r128 39 40 88.2939
r129 36 40 1.74244
r130 35 36 88.2939
r131 33 52 89.3538
r132 32 35 1.20536
r133 32 33 88.2939
r134 29 47 89.3538
r135 28 32 2.11607
r136 28 29 88.2939
r137 24 36 1.63122
r138 15 16 2.76195
r139 14 20 0.494
r140 13 20 0.0115966
r141 13 24 0.201043
r142 13 16 0.201043
r143 11 59 23.4
r144 7 55 18.33
r145 3 50 18.72
.ends

.subckt PM_4_WALLACE_MULTIPLIER_XI39.NET11 3 5 6 11 15 20 23 25 26 29 31 32 33
+ 34 35 36 41 42 43 58 59 63 66 67 68
c155 68 0 0.0583459f
c156 67 0 0.00423639f
c157 66 0 0.0499696f
c158 63 0 0.00431268f
c159 59 0 0.036577f
c160 58 0 0.0349426f
c161 43 0 0.00495292f
c162 42 0 0.00244301f
c163 41 0 0.00687714f
c164 35 0 0.0216117f
c165 34 0 0.00874939f
c166 33 0 0.00271565f
c167 32 0 0.0136556f
c168 31 0 0.00247246f
c169 29 0 0.014872f
c170 26 0 0.00362741f
c171 25 0 0.0259254f
c172 23 0 0.0539385f
c173 20 0 0.0201028f
c174 15 0 0.0256576f
c175 11 0 0.022128f
c176 6 0 0.00429563f
c177 5 0 0.0147264f
c178 3 0 0.0251626f
r179 66 68 5.36476
r180 66 67 89.3538
r181 62 63 89.3538
r182 58 59 88.2939
r183 55 58 1.5
r184 55 63 88.2939
r185 52 55 1.28125
r186 52 67 88.2939
r187 48 52 1.46875
r188 48 49 88.2939
r189 43 49 0.110152
r190 41 49 0.103394
r191 41 42 1.29437
r192 37 42 0.187062
r193 36 59 1.61172
r194 35 43 3.10786
r195 34 37 0.800714
r196 32 62 10.3527
r197 32 33 0.243858
r198 27 29 18.72
r199 25 27 4.36146
r200 25 26 56.8286
r201 21 33 4.89813
r202 21 23 90.48
r203 18 33 4.89813
r204 18 20 20.67
r205 17 26 4.36146
r206 17 20 29.25
r207 13 15 35.1
r208 12 31 2.93573
r209 11 13 4.38573
r210 11 12 35.9478
r211 7 31 1.18301
r212 7 68 160.68
r213 5 31 2.93573
r214 5 6 30.8609
r215 1 6 4.38573
r216 1 3 35.1
.ends

.subckt PM_4_WALLACE_MULTIPLIER_XI39.NET21 3 7 11 13 14 15 29 33 35 40 43 44 47
+ 52 57
c110 57 0 0.00873142f
c111 52 0 0.0120465f
c112 47 0 0.0120975f
c113 44 0 0.00422927f
c114 43 0 0.00418793f
c115 40 0 0.0252845f
c116 35 0 0.0107752f
c117 33 0 0.00239439f
c118 29 0 0.0026625f
c119 15 0 0.0264188f
c120 14 0 0.0151835f
c121 13 0 0.00171319f
c122 11 0 0.019129f
c123 7 0 0.014872f
c124 3 0 0.0120876f
r125 57 59 5.49772
r126 52 55 5.63701
r127 47 50 5.63701
r128 44 57 89.3538
r129 43 44 88.2939
r130 39 43 1.19643
r131 39 40 88.2939
r132 36 40 1.74244
r133 35 36 88.2939
r134 33 52 89.3538
r135 32 35 1.20536
r136 32 33 88.2939
r137 29 47 89.3538
r138 28 32 2.11607
r139 28 29 88.2939
r140 24 36 1.63122
r141 15 16 2.76195
r142 14 20 0.494
r143 13 20 0.0115966
r144 13 24 0.201043
r145 13 16 0.201043
r146 11 59 23.4
r147 7 55 18.33
r148 3 50 18.72
.ends

.subckt PM_4_WALLACE_MULTIPLIER_XI32.NET11 3 5 6 11 15 20 23 25 26 29 31 32 33
+ 34 35 36 41 42 43 58 59 63 66 67 68
c156 68 0 0.0582807f
c157 67 0 0.00423639f
c158 66 0 0.0499696f
c159 63 0 0.00431268f
c160 59 0 0.0347037f
c161 58 0 0.03537f
c162 43 0 0.0049241f
c163 42 0 0.00265029f
c164 41 0 0.00687714f
c165 35 0 0.0215696f
c166 34 0 0.00930072f
c167 33 0 0.00265802f
c168 32 0 0.0135847f
c169 31 0 0.00247246f
c170 29 0 0.014872f
c171 26 0 0.00362741f
c172 25 0 0.0259352f
c173 23 0 0.0512254f
c174 20 0 0.0201565f
c175 15 0 0.025635f
c176 11 0 0.022054f
c177 6 0 0.00429563f
c178 5 0 0.014729f
c179 3 0 0.0254966f
r180 66 68 5.36476
r181 66 67 89.3538
r182 62 63 89.3538
r183 58 59 88.2939
r184 55 58 1.5
r185 55 63 88.2939
r186 52 55 1.28125
r187 52 67 88.2939
r188 48 52 1.46875
r189 48 49 88.2939
r190 43 49 0.110152
r191 41 49 0.103394
r192 41 42 1.29437
r193 37 42 0.187062
r194 36 59 1.61172
r195 35 43 3.10786
r196 34 37 0.800714
r197 32 62 10.3527
r198 32 33 0.243858
r199 27 29 18.72
r200 25 27 4.36146
r201 25 26 56.8286
r202 21 33 4.89813
r203 21 23 90.48
r204 18 33 4.89813
r205 18 20 20.67
r206 17 26 4.36146
r207 17 20 29.25
r208 13 15 35.1
r209 12 31 2.93573
r210 11 13 4.38573
r211 11 12 35.9478
r212 7 31 1.18301
r213 7 68 160.68
r214 5 31 2.93573
r215 5 6 30.8609
r216 1 6 4.38573
r217 1 3 35.1
.ends

.subckt PM_4_WALLACE_MULTIPLIER_XI32.NET21 3 7 11 13 14 15 29 33 35 40 43 44 47
+ 52 57
c104 57 0 0.00863227f
c105 52 0 0.0120465f
c106 47 0 0.0120975f
c107 44 0 0.00603663f
c108 43 0 0.00587717f
c109 40 0 0.0268034f
c110 35 0 0.0108515f
c111 33 0 0.00239439f
c112 29 0 0.0026625f
c113 15 0 0.0265205f
c114 14 0 0.0152695f
c115 13 0 0.00171319f
c116 11 0 0.0195551f
c117 7 0 0.014872f
c118 3 0 0.0120876f
r119 57 59 5.49772
r120 52 55 5.63701
r121 47 50 5.63701
r122 44 57 89.3538
r123 43 44 88.2939
r124 39 43 1.19643
r125 39 40 88.2939
r126 36 40 1.74244
r127 35 36 88.2939
r128 33 52 89.3538
r129 32 35 1.20536
r130 32 33 88.2939
r131 29 47 89.3538
r132 28 32 2.11607
r133 28 29 88.2939
r134 24 36 1.63122
r135 15 16 2.76195
r136 14 20 0.494
r137 13 20 0.0115966
r138 13 24 0.201043
r139 13 16 0.201043
r140 11 59 23.4
r141 7 55 18.33
r142 3 50 18.72
.ends

.subckt PM_4_WALLACE_MULTIPLIER_XI40.NET11 3 5 6 11 15 20 23 25 26 29 31 32 33
+ 34 35 36 41 42 43 58 59 63 66 67 68
c152 68 0 0.0582807f
c153 67 0 0.00423639f
c154 66 0 0.0499696f
c155 63 0 0.00431268f
c156 59 0 0.0363917f
c157 58 0 0.0349426f
c158 43 0 0.0049241f
c159 42 0 0.00257003f
c160 41 0 0.00687714f
c161 35 0 0.0216811f
c162 34 0 0.00921327f
c163 33 0 0.00265802f
c164 32 0 0.0135847f
c165 31 0 0.00247246f
c166 29 0 0.014872f
c167 26 0 0.00362741f
c168 25 0 0.0259083f
c169 23 0 0.0539397f
c170 20 0 0.0201565f
c171 15 0 0.0256576f
c172 11 0 0.022054f
c173 6 0 0.00429563f
c174 5 0 0.014729f
c175 3 0 0.0254966f
r176 66 68 5.36476
r177 66 67 89.3538
r178 62 63 89.3538
r179 58 59 88.2939
r180 55 58 1.5
r181 55 63 88.2939
r182 52 55 1.28125
r183 52 67 88.2939
r184 48 52 1.46875
r185 48 49 88.2939
r186 43 49 0.110152
r187 41 49 0.103394
r188 41 42 1.29437
r189 37 42 0.187062
r190 36 59 1.61172
r191 35 43 3.10786
r192 34 37 0.800714
r193 32 62 10.3527
r194 32 33 0.243858
r195 27 29 18.72
r196 25 27 4.36146
r197 25 26 56.8286
r198 21 33 4.89813
r199 21 23 90.48
r200 18 33 4.89813
r201 18 20 20.67
r202 17 26 4.36146
r203 17 20 29.25
r204 13 15 35.1
r205 12 31 2.93573
r206 11 13 4.38573
r207 11 12 35.9478
r208 7 31 1.18301
r209 7 68 160.68
r210 5 31 2.93573
r211 5 6 30.8609
r212 1 6 4.38573
r213 1 3 35.1
.ends

.subckt PM_4_WALLACE_MULTIPLIER_XI40.NET21 3 7 11 13 14 15 29 33 35 40 43 44 47
+ 52 57
c104 57 0 0.00863227f
c105 52 0 0.0120465f
c106 47 0 0.0120975f
c107 44 0 0.00603663f
c108 43 0 0.00587717f
c109 40 0 0.0268034f
c110 35 0 0.0108756f
c111 33 0 0.00239439f
c112 29 0 0.0026625f
c113 15 0 0.0263725f
c114 14 0 0.0151433f
c115 13 0 0.00171319f
c116 11 0 0.0215515f
c117 7 0 0.014872f
c118 3 0 0.0120876f
r119 57 59 5.49772
r120 52 55 5.63701
r121 47 50 5.63701
r122 44 57 89.3538
r123 43 44 88.2939
r124 39 43 1.19643
r125 39 40 88.2939
r126 36 40 1.74244
r127 35 36 88.2939
r128 33 52 89.3538
r129 32 35 1.20536
r130 32 33 88.2939
r131 29 47 89.3538
r132 28 32 2.11607
r133 28 29 88.2939
r134 24 36 1.63122
r135 15 16 2.76195
r136 14 20 0.494
r137 13 20 0.0115966
r138 13 24 0.201043
r139 13 16 0.201043
r140 11 59 23.4
r141 7 55 18.33
r142 3 50 18.72
.ends

.subckt PM_4_WALLACE_MULTIPLIER_XI15.NET8 3 7 10 11 12 17 18 24 25 27 32
c80 32 0 0.00411328f
c81 27 0 0.0201174f
c82 25 0 0.00372536f
c83 24 0 0.00699304f
c84 18 0 0.0013071f
c85 17 0 0.00324486f
c86 12 0 0.00742361f
c87 11 0 0.00761631f
c88 10 0 0.00407847f
c89 9 0 0.00964054f
c90 7 0 0.0247945f
c91 3 0 0.0360689f
r92 27 28 80.1018
r93 25 35 0.637231
r94 25 27 1.596
r95 24 25 0.268923
r96 23 32 0.0223169
r97 23 24 1.47615
r98 19 32 0.336154
r99 17 35 0.0223169
r100 17 18 1.02308
r101 13 18 0.213729
r102 12 13 0.582667
r103 11 19 0.430667
r104 9 28 5.60757
r105 9 10 0.378765
r106 5 10 5.13836
r107 5 7 32.3143
r108 1 10 5.13836
r109 1 3 60.5429
.ends

.subckt PM_4_WALLACE_MULTIPLIER_XI13.NET8 3 7 10 11 12 17 18 24 25 27 32
c74 32 0 0.00410858f
c75 27 0 0.0201774f
c76 25 0 0.00370749f
c77 24 0 0.0095476f
c78 18 0 0.00138049f
c79 17 0 0.0036602f
c80 12 0 0.00760662f
c81 11 0 0.00777795f
c82 10 0 0.00407847f
c83 9 0 0.00964054f
c84 7 0 0.0256607f
c85 3 0 0.0366929f
r86 27 28 80.1018
r87 25 35 0.637231
r88 25 27 1.596
r89 24 25 0.268923
r90 23 32 0.0223169
r91 23 24 1.47615
r92 19 32 0.336154
r93 17 35 0.0223169
r94 17 18 1.02308
r95 13 18 0.213729
r96 12 13 0.582667
r97 11 19 0.430667
r98 9 28 5.60757
r99 9 10 0.378765
r100 5 10 5.13836
r101 5 7 32.3143
r102 1 10 5.13836
r103 1 3 60.5429
.ends

.subckt PM_4_WALLACE_MULTIPLIER_XI10.NET8 3 7 10 11 12 17 18 24 25 27 32
c79 32 0 0.00411328f
c80 27 0 0.0186984f
c81 25 0 0.00385068f
c82 24 0 0.00706247f
c83 18 0 0.0013071f
c84 17 0 0.00233085f
c85 12 0 0.00649651f
c86 11 0 0.00725951f
c87 10 0 0.00407847f
c88 9 0 0.00964054f
c89 7 0 0.0239409f
c90 3 0 0.0362187f
r91 27 28 80.1018
r92 25 35 0.637231
r93 25 27 1.596
r94 24 25 0.268923
r95 23 32 0.0223169
r96 23 24 1.47615
r97 19 32 0.336154
r98 17 35 0.0223169
r99 17 18 1.02308
r100 13 18 0.213729
r101 12 13 0.582667
r102 11 19 0.430667
r103 9 28 5.60757
r104 9 10 0.378765
r105 5 10 5.13836
r106 5 7 32.3143
r107 1 10 5.13836
r108 1 3 60.5429
.ends

.subckt PM_4_WALLACE_MULTIPLIER_XI14.NET8 3 7 10 11 12 17 18 24 25 27 32
c78 32 0 0.00410858f
c79 27 0 0.0187585f
c80 25 0 0.00371991f
c81 24 0 0.00997496f
c82 18 0 0.00138049f
c83 17 0 0.00278735f
c84 12 0 0.00692376f
c85 11 0 0.00759377f
c86 10 0 0.00407847f
c87 9 0 0.00964054f
c88 7 0 0.0248072f
c89 3 0 0.0366929f
r90 27 28 80.1018
r91 25 35 0.637231
r92 25 27 1.596
r93 24 25 0.268923
r94 23 32 0.0223169
r95 23 24 1.47615
r96 19 32 0.336154
r97 17 35 0.0223169
r98 17 18 1.02308
r99 13 18 0.213729
r100 12 13 0.582667
r101 11 19 0.430667
r102 9 28 5.60757
r103 9 10 0.378765
r104 5 10 5.13836
r105 5 7 32.3143
r106 1 10 5.13836
r107 1 3 60.5429
.ends

.subckt PM_4_WALLACE_MULTIPLIER_XI7.NET8 3 7 10 11 12 17 18 24 25 27 32
c85 32 0 0.00411015f
c86 27 0 0.0186984f
c87 25 0 0.00368911f
c88 24 0 0.00680819f
c89 18 0 0.0013071f
c90 17 0 0.00233085f
c91 12 0 0.00649651f
c92 11 0 0.00771959f
c93 10 0 0.00407847f
c94 9 0 0.00964054f
c95 7 0 0.0239409f
c96 3 0 0.035959f
r97 27 28 80.1018
r98 25 35 0.637231
r99 25 27 1.596
r100 24 25 0.268923
r101 23 32 0.0223169
r102 23 24 1.47615
r103 19 32 0.336154
r104 17 35 0.0223169
r105 17 18 1.02308
r106 13 18 0.213729
r107 12 13 0.582667
r108 11 19 0.430667
r109 9 28 5.60757
r110 9 10 0.378765
r111 5 10 5.13836
r112 5 7 32.3143
r113 1 10 5.13836
r114 1 3 60.5429
.ends

.subckt PM_4_WALLACE_MULTIPLIER_XI11.NET8 3 7 10 11 12 17 18 24 25 27 32
c76 32 0 0.00410858f
c77 27 0 0.0187585f
c78 25 0 0.00371991f
c79 24 0 0.00947951f
c80 18 0 0.00138049f
c81 17 0 0.00271231f
c82 12 0 0.00692376f