
** Library name: MULTIPLIER
** Cell name: nand2
** View name: schematic
.subckt nand2 a b gnd vdd y
