

.TRAN 100e-12 100e-9 START=0.0
.OPTION DELMAX=1e-9


.TEMP 25.0
.OPTION
+    ARTIST=2
+    INGOLD=2
+    PARHIER=LOCAL
+    PSF=2
